LTspice 24.0.12 for Windows
Circuit: * C:\Users\mlame\Documents\MEEC\Hackerschool\PicoSynth\pico-synth\hardware\spice_simulations\Low-Pass_Filter.asc
Start Time: Sun Mar 16 20:54:04 2025
solver = Alternate
Maximum thread count: 16
tnom = 27
temp = 27
method = modified trap
Instance "m:u4:12": Length shorter than recommended for a level 1 MOSFET.
Instance "m:u4:14": Length shorter than recommended for a level 1 MOSFET.
Instance "m:u5:12": Length shorter than recommended for a level 1 MOSFET.
Instance "m:u5:14": Length shorter than recommended for a level 1 MOSFET.
Instance "m:u3:12": Length shorter than recommended for a level 1 MOSFET.
Instance "m:u3:14": Length shorter than recommended for a level 1 MOSFET.
Direct Newton iteration failed to find .op point.  (Use ".option noopiter" to skip.)
Starting Gmin stepping
Increasing initial diagonal Gmin to 100
Increasing initial diagonal Gmin to 1000
Increasing initial diagonal Gmin to 10000
Increasing initial diagonal Gmin to 100000
Increasing initial diagonal Gmin to 1e+06
Initial Gmin=1e+06 failed
Gmin stepping failed

Starting source stepping with srcstepmethod=0
Source Step = 3.0303%
vernier = 0.25
Source Step = 0.0177557%
Starting source stepping with srcstepmethod=1
Source Step = 3.0303%
vernier = 0.25
Source Step = 0.0177557%
Source Step = 0.0473485%
Source Step = 0.0769413%
Source Step = 0.106534%
Source Step = 0.136127%
vernier = 0.00146484
Source Step = 0.173118%
Source Step = 0.217507%
Source Step = 0.261896%
Source Step = 0.306286%
Source Step = 0.350675%
vernier = 0.00219727
Source Step = 0.403942%
Source Step = 0.470526%
Source Step = 0.537109%
Source Step = 0.603693%
Source Step = 0.670277%
vernier = 0.0032959
Source Step = 0.746848%
Source Step = 0.846724%
Source Step = 0.9466%
Source Step = 1.04648%
Source Step = 1.14635%
vernier = 0.00494385
Source Step = 1.25621%
Source Step = 1.40603%
Source Step = 1.55584%
Source Step = 1.70566%
Source Step = 1.85547%
vernier = 0.00741577
Source Step = 2.01277%
Source Step = 2.23749%
Source Step = 2.46221%
Source Step = 2.68693%
Source Step = 2.91165%
Source Step = 3.13637%
vernier = 0.0111237
Source Step = 3.47346%
Source Step = 3.81054%
Source Step = 4.14762%
Source Step = 4.4847%
Source Step = 4.82178%
vernier = 0.0166855
Source Step = 5.31054%
Source Step = 5.81616%
Source Step = 6.32179%
Source Step = 6.82741%
Source Step = 7.33303%
vernier = 0.0250282
Source Step = 8.0409%
Source Step = 8.6666%
vernier = 0.00156426
Source stepping failed

Pseudo Transient failed in finding the operating point at 11.2465 µs.
Trouble finding operating point....skipping operating point for Transient analysis.
Changing Tseed to 1e-07
Changing Tseed to 1e-09
Changing Tseed to 1e-06
Changing Tseed to 1e-10
Changing Tseed to 1e-05
Changing Tseed to 1e-11
Changing Tseed to 0.0001
Changing Tseed to 1e-12
Changing Tseed to 0.001
Changing Tseed to 1e-13
Changing Tseed to 0.01
Changing Tseed to 1e-14
to 2e-14
Heightened Def Con from 2.86724e-06 to 2.86924e-06
Total elapsed time: 2.073 seconds.

