LTspice 24.0.12 for Windows
Circuit: * C:\Users\mlame\Documents\MEEC\Hackerschool\PicoSynth\Low-Pass Filter.asc
Start Time: Thu Jan 16 19:03:32 2025
solver = Alternate
Maximum thread count: 16
tnom = 27
temp = 27
method = modified trap
WARNING: Node OUTPUT is floating.

WARNING: Less than two connections to node output.  This node is used by r11.
WARNING: Less than two connections to node nc_01.  This node is used by r:u2:0.
Instance "m:u4:12": Length shorter than recommended for a level 1 MOSFET.
Instance "m:u4:14": Length shorter than recommended for a level 1 MOSFET.
Instance "m:u5:12": Length shorter than recommended for a level 1 MOSFET.
Instance "m:u5:14": Length shorter than recommended for a level 1 MOSFET.
Instance "m:u1:12": Length shorter than recommended for a level 1 MOSFET.
Instance "m:u1:14": Length shorter than recommended for a level 1 MOSFET.
Direct Newton iteration failed to find .op point.  (Use ".option noopiter" to skip.)
Starting Gmin stepping
Increasing initial diagonal Gmin to 100
Increasing initial diagonal Gmin to 1000
Increasing initial diagonal Gmin to 10000
Increasing initial diagonal Gmin to 100000
Increasing initial diagonal Gmin to 1e+06
Initial Gmin=1e+06 failed
Gmin stepping failed

Starting source stepping with srcstepmethod=0
Source Step = 3.0303%
vernier = 0.25
Source Step = 2.93561%
Source Step = 3.40909%
Source Step = 3.88258%
Source Step = 4.35606%
Source Step = 4.82955%
vernier = 0.0234375
Source Step = 5.3267%
Source Step = 6.03693%
Source Step = 6.74716%
Source Step = 7.45739%
Source Step = 8.16761%
Source Step = 8.87784%
vernier = 0.0351562
Source Step = 9.94318%
Source Step = 10.8221%
vernier = 0.00219727
Starting source stepping with srcstepmethod=1
Source Step = 3.0303%
vernier = 0.25
Source Step = 0.0177557%
Source Step = 0.0473485%
Source Step = 0.0769413%
Source Step = 0.106534%
Source Step = 0.136127%
vernier = 0.00146484
Source Step = 0.173118%
Source Step = 0.217507%
Source Step = 0.261896%
Source Step = 0.306286%
Source Step = 0.350675%
vernier = 0.00219727
Source Step = 0.403942%
Source Step = 0.470526%
Source Step = 0.537109%
Source Step = 0.603693%
Source Step = 0.670277%
vernier = 0.0032959
Source Step = 0.746848%
Source Step = 0.846724%
Source Step = 0.9466%
Source Step = 1.04648%
Source Step = 1.14635%
vernier = 0.00494385
Source Step = 1.25621%
Source Step = 1.40603%
Source Step = 1.55584%
Source Step = 1.70566%
Source Step = 1.85547%
vernier = 0.00741577
Source Step = 2.01277%
Source Step = 2.23749%
Source Step = 2.46221%
Source Step = 2.68693%
Source Step = 2.91165%
Source Step = 3.13637%
vernier = 0.0111237
Source Step = 3.47346%
Source Step = 3.81054%
Source Step = 4.14762%
Source Step = 4.4847%
Source Step = 4.82178%
vernier = 0.0166855
Source Step = 5.31054%
Source Step = 5.81616%
Source Step = 6.32179%
Source Step = 6.82741%
Source Step = 7.33303%
vernier = 0.0250282
Source Step = 8.0409%
Source Step = 8.6666%
vernier = 0.00156426
Source stepping failed

Pseudo Transient failed in finding the operating point at 2.75968 ms.
Trouble finding operating point....skipping operating point for Transient analysis.
Changing Tseed to 9.76562e-08
Changing Tseed to 9.76562e-10
Changing Tseed to 9.76562e-07
Changing Tseed to 9.76562e-11
Changing Tseed to 9.76562e-06
Changing Tseed to 9.76562e-12
Changing Tseed to 9.76562e-05
Changing Tseed to 9.76562e-13
Changing Tseed to 0.000976562
Changing Tseed to 9.76562e-14
Changing Tseed to 0.00976562
Changing Tseed to 9.76562e-15
to 1.95312e-14
Heightened Def Con from 0.004379 to 0.004379
Heightened Def Con from 0.00438064 to 0.00438064
Heightened Def Con from 0.00438754 to 0.00438754
Heightened Def Con from 0.00438758 to 0.00438758
Total elapsed time: 36.264 seconds.

